src/Test_Network/C3_Master.dss
Clear
New Circuit.IEEE8500  
~ pu=1.05  r1=0  x1=0.001  r0=0  x0=0.001  
Redirect  LineCodes2.dss
Redirect  Triplex_Linecodes.dss
Redirect  C3_Lines.dss
Redirect  C3_Transformers.dss
Redirect  C3_LoadXfmrs.dss    ! Load Transformers
Redirect  C3_Triplex_Lines.dss
Redirect  C3_Loads.dss     ! Balanced Loads
Redirect  C3_Capacitors.dss
Redirect  C3_CapControls.dss
Redirect  C3_Regulators.dss
Set voltagebases=[115, 12.47,  0.48, 0.208]
Calcvoltagebases     ! This also establishes the bus list
Buscoords  C3_Buscoords.dss
